Version 4
SHEET 1 880 680
WIRE 336 16 208 16
WIRE 336 32 336 16
WIRE 208 64 208 16
WIRE 208 176 208 144
WIRE 208 192 208 176
WIRE 208 304 208 272
FLAG 336 112 0
FLAG 208 176 x
FLAG 208 304 0
SYMBOL res 192 48 R0
SYMATTR InstName R1
SYMATTR Value 2.5k
SYMBOL res 192 176 R0
SYMATTR InstName R2
SYMATTR Value 5k
SYMBOL voltage 336 16 R0
WINDOW 123 0 0 Left 0
WINDOW 39 0 0 Left 0
SYMATTR InstName V1
SYMATTR Value 5
TEXT -8 248 Left 2 !.op
