Version 4
SHEET 1 880 680
WIRE -32 64 -112 64
WIRE 128 64 48 64
WIRE 384 64 224 64
WIRE -112 96 -112 64
WIRE 128 96 128 64
WIRE 224 96 224 64
WIRE 384 128 384 64
WIRE -112 240 -112 176
WIRE 16 240 -112 240
WIRE 128 240 128 176
WIRE 128 240 16 240
WIRE 224 240 224 176
WIRE 304 240 224 240
WIRE 384 240 384 208
WIRE 384 240 304 240
FLAG 16 240 0
FLAG 304 240 0
SYMBOL res 400 224 R180
WINDOW 0 36 76 Left 2
WINDOW 3 36 40 Left 2
SYMATTR InstName R1
SYMATTR Value 1K
SYMBOL res -48 80 R270
WINDOW 0 32 56 VTop 2
WINDOW 3 0 56 VBottom 2
SYMATTR InstName R2
SYMATTR Value 50
SYMBOL ind2 112 80 R0
SYMATTR InstName L1
SYMATTR Value 1
SYMATTR Type ind
SYMBOL voltage -112 80 R0
WINDOW 123 0 0 Left 0
WINDOW 39 0 0 Left 0
SYMATTR InstName V1
SYMATTR Value SINE(0 100 50)
SYMBOL ind2 240 80 M0
SYMATTR InstName L2
SYMATTR Value 5
SYMATTR Type ind
TEXT -176 280 Left 2 !.tran 1
TEXT 128 8 Left 2 !K L1 L2 1
